LTspice 26.0.1 for Windows
Circuit: C:\Users\Anwar\Downloads\ltspice_repo\ideal_diode.cir
Start Time: Thu Jan 29 22:49:09 2026
solver = Normal
Maximum thread count: 4
tnom = 27
temp = 27
method = trap
.OP point found by inspection.
Total elapsed time: 0.257 seconds.

Files loaded:
C:\Users\Anwar\Downloads\ltspice_repo\ideal_diode.cir

